<?xml version="1.0" encoding="UTF-8"?>

<!-- generated on Mon Oct 18 11:53:44 2021 by Eclipse SUMO netconvert Version 1.8.0
<configuration xmlns:xsi="http://www.w3.org/2001/XMLSchema-instance" xsi:noNamespaceSchemaLocation="http://sumo.dlr.de/xsd/netconvertConfiguration.xsd">

    <input>
        <sumo-net-file value="Crossroad.net.xml"/>
    </input>

    <output>
        <output-file value="D:\PanoSimDatabase\World\Crossroad\Crossroad.net.xml"/>
    </output>

    <processing>
        <flatten value="true"/>
        <geometry.min-radius.fix.railways value="false"/>
        <geometry.max-grade.fix value="false"/>
        <offset.disable-normalization value="true"/>
        <lefthand value="false"/>
    </processing>

    <junctions>
        <no-turnarounds value="true"/>
        <junctions.corner-detail value="5"/>
        <junctions.limit-turn-speed value="5.5"/>
        <rectangular-lane-cut value="false"/>
    </junctions>

    <pedestrian>
        <walkingareas value="false"/>
    </pedestrian>

    <report>
        <aggregate-warnings value="5"/>
    </report>

</configuration>
-->

<net version="1.6" junctionCornerDetail="5" limitTurnSpeed="5.50" xmlns:xsi="http://www.w3.org/2001/XMLSchema-instance" xsi:noNamespaceSchemaLocation="http://sumo.dlr.de/xsd/net_file.xsd">

    <location netOffset="0.00,0.00" convBoundary="-400.00,-400.00,400.00,400.00" origBoundary="-10000000000.00,-10000000000.00,10000000000.00,10000000000.00" projParameter="!"/>

    <edge id=":gneJ1_0" function="internal">
        <lane id=":gneJ1_0_0" index="0" speed="6.51" length="9.03" shape="-8.00,13.60 -8.35,11.15 -9.40,9.40 -11.15,8.35 -13.60,8.00"/>
    </edge>
    <edge id=":gneJ1_1" function="internal">
        <lane id=":gneJ1_1_0" index="0" speed="13.89" length="27.20" shape="-8.00,13.60 -8.00,-13.60"/>
        <lane id=":gneJ1_1_1" index="1" speed="13.89" length="27.20" shape="-4.80,13.60 -4.80,-13.60"/>
        <lane id=":gneJ1_1_2" index="2" speed="13.89" length="27.20" shape="-1.60,13.60 -1.60,-13.60"/>
    </edge>
    <edge id=":gneJ1_4" function="internal">
        <lane id=":gneJ1_4_0" index="0" speed="10.36" length="7.98" shape="-1.60,13.60 -0.65,6.95 -0.00,5.87"/>
    </edge>
    <edge id=":gneJ1_20" function="internal">
        <lane id=":gneJ1_20_0" index="0" speed="10.36" length="16.53" shape="-0.00,5.87 2.20,2.20 6.95,-0.65 13.60,-1.60"/>
    </edge>
    <edge id=":gneJ1_5" function="internal">
        <lane id=":gneJ1_5_0" index="0" speed="6.51" length="9.03" shape="13.60,8.00 11.15,8.35 9.40,9.40 8.35,11.15 8.00,13.60"/>
    </edge>
    <edge id=":gneJ1_6" function="internal">
        <lane id=":gneJ1_6_0" index="0" speed="13.89" length="27.20" shape="13.60,8.00 -13.60,8.00"/>
        <lane id=":gneJ1_6_1" index="1" speed="13.89" length="27.20" shape="13.60,4.80 -13.60,4.80"/>
        <lane id=":gneJ1_6_2" index="2" speed="13.89" length="27.20" shape="13.60,1.60 -13.60,1.60"/>
    </edge>
    <edge id=":gneJ1_9" function="internal">
        <lane id=":gneJ1_9_0" index="0" speed="10.36" length="24.51" shape="13.60,1.60 6.95,0.65 2.20,-2.20 -0.65,-6.95 -1.60,-13.60"/>
    </edge>
    <edge id=":gneJ1_10" function="internal">
        <lane id=":gneJ1_10_0" index="0" speed="6.51" length="9.03" shape="8.00,-13.60 8.35,-11.15 9.40,-9.40 11.15,-8.35 13.60,-8.00"/>
    </edge>
    <edge id=":gneJ1_11" function="internal">
        <lane id=":gneJ1_11_0" index="0" speed="13.89" length="27.20" shape="8.00,-13.60 8.00,13.60"/>
        <lane id=":gneJ1_11_1" index="1" speed="13.89" length="27.20" shape="4.80,-13.60 4.80,13.60"/>
        <lane id=":gneJ1_11_2" index="2" speed="13.89" length="27.20" shape="1.60,-13.60 1.60,13.60"/>
    </edge>
    <edge id=":gneJ1_14" function="internal">
        <lane id=":gneJ1_14_0" index="0" speed="10.36" length="7.98" shape="1.60,-13.60 0.65,-6.95 0.00,-5.87"/>
    </edge>
    <edge id=":gneJ1_21" function="internal">
        <lane id=":gneJ1_21_0" index="0" speed="10.36" length="16.53" shape="0.00,-5.87 -2.20,-2.20 -6.95,0.65 -13.60,1.60"/>
    </edge>
    <edge id=":gneJ1_15" function="internal">
        <lane id=":gneJ1_15_0" index="0" speed="6.51" length="9.03" shape="-13.60,-8.00 -11.15,-8.35 -9.40,-9.40 -8.35,-11.15 -8.00,-13.60"/>
    </edge>
    <edge id=":gneJ1_16" function="internal">
        <lane id=":gneJ1_16_0" index="0" speed="13.89" length="27.20" shape="-13.60,-8.00 13.60,-8.00"/>
        <lane id=":gneJ1_16_1" index="1" speed="13.89" length="27.20" shape="-13.60,-4.80 13.60,-4.80"/>
        <lane id=":gneJ1_16_2" index="2" speed="13.89" length="27.20" shape="-13.60,-1.60 13.60,-1.60"/>
    </edge>
    <edge id=":gneJ1_19" function="internal">
        <lane id=":gneJ1_19_0" index="0" speed="10.36" length="24.51" shape="-13.60,-1.60 -6.95,-0.65 -2.20,2.20 0.65,6.95 1.60,13.60"/>
    </edge>

    <edge id="-gneE0" from="gneJ2" to="gneJ1" priority="-1">
        <lane id="-gneE0_0" index="0" speed="13.89" length="386.40" shape="-8.00,400.00 -8.00,13.60"/>
        <lane id="-gneE0_1" index="1" speed="13.89" length="386.40" shape="-4.80,400.00 -4.80,13.60"/>
        <lane id="-gneE0_2" index="2" speed="13.89" length="386.40" shape="-1.60,400.00 -1.60,13.60"/>
    </edge>
    <edge id="-gneE1" from="gneJ3" to="gneJ1" priority="-1">
        <lane id="-gneE1_0" index="0" speed="13.89" length="386.40" shape="400.00,8.00 13.60,8.00"/>
        <lane id="-gneE1_1" index="1" speed="13.89" length="386.40" shape="400.00,4.80 13.60,4.80"/>
        <lane id="-gneE1_2" index="2" speed="13.89" length="386.40" shape="400.00,1.60 13.60,1.60"/>
    </edge>
    <edge id="-gneE2" from="gneJ4" to="gneJ1" priority="-1">
        <lane id="-gneE2_0" index="0" speed="13.89" length="386.40" shape="8.00,-400.00 8.00,-13.60"/>
        <lane id="-gneE2_1" index="1" speed="13.89" length="386.40" shape="4.80,-400.00 4.80,-13.60"/>
        <lane id="-gneE2_2" index="2" speed="13.89" length="386.40" shape="1.60,-400.00 1.60,-13.60"/>
    </edge>
    <edge id="-gneE3" from="gneJ5" to="gneJ1" priority="-1">
        <lane id="-gneE3_0" index="0" speed="13.89" length="386.40" shape="-400.00,-8.00 -13.60,-8.00"/>
        <lane id="-gneE3_1" index="1" speed="13.89" length="386.40" shape="-400.00,-4.80 -13.60,-4.80"/>
        <lane id="-gneE3_2" index="2" speed="13.89" length="386.40" shape="-400.00,-1.60 -13.60,-1.60"/>
    </edge>
    <edge id="gneE0" from="gneJ1" to="gneJ2" priority="-1">
        <lane id="gneE0_0" index="0" speed="13.89" length="386.40" shape="8.00,13.60 8.00,400.00"/>
        <lane id="gneE0_1" index="1" speed="13.89" length="386.40" shape="4.80,13.60 4.80,400.00"/>
        <lane id="gneE0_2" index="2" speed="13.89" length="386.40" shape="1.60,13.60 1.60,400.00"/>
    </edge>
    <edge id="gneE1" from="gneJ1" to="gneJ3" priority="-1">
        <lane id="gneE1_0" index="0" speed="13.89" length="386.40" shape="13.60,-8.00 400.00,-8.00"/>
        <lane id="gneE1_1" index="1" speed="13.89" length="386.40" shape="13.60,-4.80 400.00,-4.80"/>
        <lane id="gneE1_2" index="2" speed="13.89" length="386.40" shape="13.60,-1.60 400.00,-1.60"/>
    </edge>
    <edge id="gneE2" from="gneJ1" to="gneJ4" priority="-1">
        <lane id="gneE2_0" index="0" speed="13.89" length="386.40" shape="-8.00,-13.60 -8.00,-400.00"/>
        <lane id="gneE2_1" index="1" speed="13.89" length="386.40" shape="-4.80,-13.60 -4.80,-400.00"/>
        <lane id="gneE2_2" index="2" speed="13.89" length="386.40" shape="-1.60,-13.60 -1.60,-400.00"/>
    </edge>
    <edge id="gneE3" from="gneJ1" to="gneJ5" priority="-1">
        <lane id="gneE3_0" index="0" speed="13.89" length="386.40" shape="-13.60,8.00 -400.00,8.00"/>
        <lane id="gneE3_1" index="1" speed="13.89" length="386.40" shape="-13.60,4.80 -400.00,4.80"/>
        <lane id="gneE3_2" index="2" speed="13.89" length="386.40" shape="-13.60,1.60 -400.00,1.60"/>
    </edge>

    <junction id="gneJ1" type="priority" x="0.00" y="0.00" incLanes="-gneE0_0 -gneE0_1 -gneE0_2 -gneE1_0 -gneE1_1 -gneE1_2 -gneE2_0 -gneE2_1 -gneE2_2 -gneE3_0 -gneE3_1 -gneE3_2" intLanes=":gneJ1_0_0 :gneJ1_1_0 :gneJ1_1_1 :gneJ1_1_2 :gneJ1_20_0 :gneJ1_5_0 :gneJ1_6_0 :gneJ1_6_1 :gneJ1_6_2 :gneJ1_9_0 :gneJ1_10_0 :gneJ1_11_0 :gneJ1_11_1 :gneJ1_11_2 :gneJ1_21_0 :gneJ1_15_0 :gneJ1_16_0 :gneJ1_16_1 :gneJ1_16_2 :gneJ1_19_0" shape="-9.60,13.60 9.60,13.60 10.04,11.38 10.60,10.60 11.38,10.04 12.38,9.71 13.60,9.60 13.60,-9.60 11.38,-10.04 10.60,-10.60 10.04,-11.38 9.71,-12.38 9.60,-13.60 -9.60,-13.60 -10.04,-11.38 -10.60,-10.60 -11.38,-10.04 -12.38,-9.71 -13.60,-9.60 -13.60,9.60 -11.38,10.04 -10.60,10.60 -10.04,11.38 -9.71,12.38">
        <request index="0"  response="00000000000000000000" foes="00000000000111000000" cont="0"/>
        <request index="1"  response="00000000000000000000" foes="11111100001111000000" cont="0"/>
        <request index="2"  response="00000000000000000000" foes="11111100001111000000" cont="0"/>
        <request index="3"  response="00000000000000000000" foes="11111100001111000000" cont="0"/>
        <request index="4"  response="00000011100000000000" foes="11110011101111000000" cont="1"/>
        <request index="5"  response="00000011100000000000" foes="00000011100000000000" cont="0"/>
        <request index="6"  response="00000111100000011111" foes="10000111100000011111" cont="0"/>
        <request index="7"  response="00000111100000011111" foes="10000111100000011111" cont="0"/>
        <request index="8"  response="00000111100000011111" foes="10000111100000011111" cont="0"/>
        <request index="9"  response="01110111100000011110" foes="01110111100000011110" cont="0"/>
        <request index="10" response="00000000000000000000" foes="01110000000000000000" cont="0"/>
        <request index="11" response="00000000000000000000" foes="11110000001111110000" cont="0"/>
        <request index="12" response="00000000000000000000" foes="11110000001111110000" cont="0"/>
        <request index="13" response="00000000000000000000" foes="11110000001111110000" cont="0"/>
        <request index="14" response="00000000000000001110" foes="11110000001111001110" cont="1"/>
        <request index="15" response="00000000000000001110" foes="00000000000000001110" cont="0"/>
        <request index="16" response="00000111110000011110" foes="00000111111000011110" cont="0"/>
        <request index="17" response="00000111110000011110" foes="00000111111000011110" cont="0"/>
        <request index="18" response="00000111110000011110" foes="00000111111000011110" cont="0"/>
        <request index="19" response="00000111100111011110" foes="00000111100111011110" cont="0"/>
    </junction>
    <junction id="gneJ2" type="dead_end" x="0.00" y="400.00" incLanes="gneE0_0 gneE0_1 gneE0_2" intLanes="" shape="0.00,400.00 9.60,400.00 0.00,400.00"/>
    <junction id="gneJ3" type="dead_end" x="400.00" y="0.00" incLanes="gneE1_0 gneE1_1 gneE1_2" intLanes="" shape="400.00,0.00 400.00,-9.60 400.00,0.00"/>
    <junction id="gneJ4" type="dead_end" x="0.00" y="-400.00" incLanes="gneE2_0 gneE2_1 gneE2_2" intLanes="" shape="0.00,-400.00 -9.60,-400.00 0.00,-400.00"/>
    <junction id="gneJ5" type="dead_end" x="-400.00" y="0.00" incLanes="gneE3_0 gneE3_1 gneE3_2" intLanes="" shape="-400.00,0.00 -400.00,9.60 -400.00,0.00"/>

    <junction id=":gneJ1_20_0" type="internal" x="-0.00" y="5.87" incLanes=":gneJ1_4_0 -gneE2_0 -gneE2_1 -gneE2_2" intLanes=":gneJ1_6_0 :gneJ1_6_1 :gneJ1_6_2 :gneJ1_9_0 :gneJ1_10_0 :gneJ1_11_0 :gneJ1_11_1 :gneJ1_11_2 :gneJ1_16_0 :gneJ1_16_1 :gneJ1_16_2 :gneJ1_19_0"/>
    <junction id=":gneJ1_21_0" type="internal" x="0.00" y="-5.87" incLanes=":gneJ1_14_0 -gneE0_0 -gneE0_1 -gneE0_2" intLanes=":gneJ1_0_0 :gneJ1_1_0 :gneJ1_1_1 :gneJ1_1_2 :gneJ1_6_0 :gneJ1_6_1 :gneJ1_6_2 :gneJ1_9_0 :gneJ1_16_0 :gneJ1_16_1 :gneJ1_16_2 :gneJ1_19_0"/>

    <connection from="-gneE0" to="gneE3" fromLane="0" toLane="0" via=":gneJ1_0_0" dir="r" state="M"/>
    <connection from="-gneE0" to="gneE2" fromLane="0" toLane="0" via=":gneJ1_1_0" dir="s" state="M"/>
    <connection from="-gneE0" to="gneE2" fromLane="1" toLane="1" via=":gneJ1_1_1" dir="s" state="M"/>
    <connection from="-gneE0" to="gneE2" fromLane="2" toLane="2" via=":gneJ1_1_2" dir="s" state="M"/>
    <connection from="-gneE0" to="gneE1" fromLane="2" toLane="2" via=":gneJ1_4_0" dir="l" state="m"/>
    <connection from="-gneE1" to="gneE0" fromLane="0" toLane="0" via=":gneJ1_5_0" dir="r" state="m"/>
    <connection from="-gneE1" to="gneE3" fromLane="0" toLane="0" via=":gneJ1_6_0" dir="s" state="m"/>
    <connection from="-gneE1" to="gneE3" fromLane="1" toLane="1" via=":gneJ1_6_1" dir="s" state="m"/>
    <connection from="-gneE1" to="gneE3" fromLane="2" toLane="2" via=":gneJ1_6_2" dir="s" state="m"/>
    <connection from="-gneE1" to="gneE2" fromLane="2" toLane="2" via=":gneJ1_9_0" dir="l" state="m"/>
    <connection from="-gneE2" to="gneE1" fromLane="0" toLane="0" via=":gneJ1_10_0" dir="r" state="M"/>
    <connection from="-gneE2" to="gneE0" fromLane="0" toLane="0" via=":gneJ1_11_0" dir="s" state="M"/>
    <connection from="-gneE2" to="gneE0" fromLane="1" toLane="1" via=":gneJ1_11_1" dir="s" state="M"/>
    <connection from="-gneE2" to="gneE0" fromLane="2" toLane="2" via=":gneJ1_11_2" dir="s" state="M"/>
    <connection from="-gneE2" to="gneE3" fromLane="2" toLane="2" via=":gneJ1_14_0" dir="l" state="m"/>
    <connection from="-gneE3" to="gneE2" fromLane="0" toLane="0" via=":gneJ1_15_0" dir="r" state="m"/>
    <connection from="-gneE3" to="gneE1" fromLane="0" toLane="0" via=":gneJ1_16_0" dir="s" state="m"/>
    <connection from="-gneE3" to="gneE1" fromLane="1" toLane="1" via=":gneJ1_16_1" dir="s" state="m"/>
    <connection from="-gneE3" to="gneE1" fromLane="2" toLane="2" via=":gneJ1_16_2" dir="s" state="m"/>
    <connection from="-gneE3" to="gneE0" fromLane="2" toLane="2" via=":gneJ1_19_0" dir="l" state="m"/>

    <connection from=":gneJ1_0" to="gneE3" fromLane="0" toLane="0" dir="r" state="M"/>
    <connection from=":gneJ1_1" to="gneE2" fromLane="0" toLane="0" dir="s" state="M"/>
    <connection from=":gneJ1_1" to="gneE2" fromLane="1" toLane="1" dir="s" state="M"/>
    <connection from=":gneJ1_1" to="gneE2" fromLane="2" toLane="2" dir="s" state="M"/>
    <connection from=":gneJ1_4" to="gneE1" fromLane="0" toLane="2" via=":gneJ1_20_0" dir="l" state="m"/>
    <connection from=":gneJ1_20" to="gneE1" fromLane="0" toLane="2" dir="l" state="M"/>
    <connection from=":gneJ1_5" to="gneE0" fromLane="0" toLane="0" dir="r" state="M"/>
    <connection from=":gneJ1_6" to="gneE3" fromLane="0" toLane="0" dir="s" state="M"/>
    <connection from=":gneJ1_6" to="gneE3" fromLane="1" toLane="1" dir="s" state="M"/>
    <connection from=":gneJ1_6" to="gneE3" fromLane="2" toLane="2" dir="s" state="M"/>
    <connection from=":gneJ1_9" to="gneE2" fromLane="0" toLane="2" dir="l" state="M"/>
    <connection from=":gneJ1_10" to="gneE1" fromLane="0" toLane="0" dir="r" state="M"/>
    <connection from=":gneJ1_11" to="gneE0" fromLane="0" toLane="0" dir="s" state="M"/>
    <connection from=":gneJ1_11" to="gneE0" fromLane="1" toLane="1" dir="s" state="M"/>
    <connection from=":gneJ1_11" to="gneE0" fromLane="2" toLane="2" dir="s" state="M"/>
    <connection from=":gneJ1_14" to="gneE3" fromLane="0" toLane="2" via=":gneJ1_21_0" dir="l" state="m"/>
    <connection from=":gneJ1_21" to="gneE3" fromLane="0" toLane="2" dir="l" state="M"/>
    <connection from=":gneJ1_15" to="gneE2" fromLane="0" toLane="0" dir="r" state="M"/>
    <connection from=":gneJ1_16" to="gneE1" fromLane="0" toLane="0" dir="s" state="M"/>
    <connection from=":gneJ1_16" to="gneE1" fromLane="1" toLane="1" dir="s" state="M"/>
    <connection from=":gneJ1_16" to="gneE1" fromLane="2" toLane="2" dir="s" state="M"/>
    <connection from=":gneJ1_19" to="gneE0" fromLane="0" toLane="2" dir="l" state="M"/>

</net>
