<?xml version="1.0" encoding="UTF-8"?>

<!-- generated on 2023-03-24 16:42:58 by Eclipse SUMO netedit Version 1.12.0
-->

<routes xmlns:xsi="http://www.w3.org/2001/XMLSchema-instance" xsi:noNamespaceSchemaLocation="http://sumo.dlr.de/xsd/routes_file.xsd">
    <flow id="f_0" begin="0.00" from="L2" to="L11" end="3600.00" vehsPerHour="300.00"/>
    <flow id="f_1" begin="0.00" from="L6" to="L15" end="3600.00" vehsPerHour="300.00"/>
    <flow id="f_2" begin="0.00" from="L14" to="L7" end="3600.00" vehsPerHour="300.00"/>
    <flow id="f_3" begin="0.00" from="L10" to="L3" end="3600.00" vehsPerHour="300.00"/>
</routes>
